Version 4
SHEET 1 4820 1156
WIRE 80 -384 16 -384
WIRE 240 -384 160 -384
WIRE 0 -368 -128 -368
WIRE 16 -368 16 -384
WIRE 16 -368 0 -368
WIRE 0 -192 0 -368
WIRE 80 -192 0 -192
WIRE 240 -192 240 -384
WIRE 240 -192 160 -192
WIRE -992 -96 -1152 -96
WIRE -880 -96 -912 -96
WIRE -768 -96 -800 -96
WIRE 80 -96 -208 -96
WIRE 1344 -96 160 -96
WIRE 2944 -96 1424 -96
WIRE 3680 -96 2944 -96
WIRE 3792 -96 3744 -96
WIRE 3856 -96 3792 -96
WIRE 4208 -96 3920 -96
WIRE 3792 -48 3792 -96
WIRE 4208 -16 4208 -96
WIRE 1360 16 512 16
WIRE 2480 16 1440 16
WIRE 3792 96 3792 32
WIRE 3936 96 3792 96
WIRE 4208 96 4208 64
WIRE 4208 96 3936 96
WIRE -1040 128 -1040 80
WIRE -1808 144 -1808 96
WIRE -1456 144 -1456 96
WIRE -208 144 -208 -96
WIRE -208 240 -208 208
WIRE -208 240 -496 240
WIRE 96 240 -208 240
WIRE 512 240 512 16
WIRE 512 240 96 240
WIRE 4240 288 3936 288
WIRE 4544 288 4320 288
WIRE 4736 288 4544 288
WIRE -1808 368 -1808 224
WIRE -1648 368 -1808 368
WIRE -1584 368 -1648 368
WIRE -1472 368 -1584 368
WIRE -1456 368 -1456 224
WIRE -1456 368 -1472 368
WIRE -1152 368 -1152 -96
WIRE -1152 368 -1456 368
WIRE -1104 368 -1152 368
WIRE -1040 368 -1040 208
WIRE -1040 368 -1104 368
WIRE 3840 400 3792 400
WIRE 3936 400 3936 288
WIRE 3936 400 3904 400
WIRE 3968 400 3936 400
WIRE 4096 400 4032 400
WIRE -1584 416 -1584 368
WIRE -1472 416 -1472 368
WIRE -1104 416 -1104 368
WIRE 4736 416 4736 288
WIRE 4544 432 4544 288
WIRE 3392 464 3072 464
WIRE 3552 464 3472 464
WIRE 3632 464 3552 464
WIRE 3792 464 3792 400
WIRE 3792 464 3712 464
WIRE 4096 464 4096 400
WIRE 4192 464 4096 464
WIRE -1584 512 -1584 480
WIRE -1472 512 -1472 480
WIRE 2944 528 2944 -96
WIRE 3072 528 3072 464
WIRE 3792 528 3792 464
WIRE 3840 528 3792 528
WIRE 3936 528 3904 528
WIRE 3968 528 3936 528
WIRE 4096 528 4096 464
WIRE 4096 528 4032 528
WIRE 3552 560 3552 464
WIRE -1104 624 -1104 480
WIRE -496 624 -496 240
WIRE -496 624 -1104 624
WIRE 3936 656 3936 528
WIRE 4480 656 3936 656
WIRE 4544 656 4544 496
WIRE 4544 656 4480 656
WIRE 4736 656 4736 480
WIRE 4736 656 4544 656
WIRE 3072 720 3072 608
WIRE 3552 720 3552 624
WIRE 3552 720 3072 720
WIRE 4192 720 4192 464
WIRE 4192 720 3552 720
WIRE 2480 784 2480 16
WIRE 2624 784 2480 784
WIRE 2944 784 2944 608
WIRE 2944 784 2624 784
WIRE 4480 784 4480 656
WIRE 4480 784 2944 784
WIRE 848 992 848 912
WIRE 1152 992 1152 912
WIRE 1488 992 1488 912
WIRE 1824 992 1824 912
WIRE 848 1136 848 1072
WIRE 1152 1136 1152 1072
WIRE 1488 1136 1488 1072
WIRE 1824 1136 1824 1072
FLAG -1040 80 mod
FLAG -1456 96 carrier
FLAG -1808 96 duty
FLAG 96 240 shield_gnd_edsac
FLAG 1488 912 shield_gnd_edsac
FLAG -1648 368 edsac_0v_isolated
FLAG 1488 1136 0
FLAG 1152 912 edsac_0v_isolated
FLAG 1152 1136 0
FLAG -128 -368 delay_line_psu_gnd
FLAG 848 912 delay_line_psu_gnd
FLAG 848 1136 0
FLAG 3936 96 shield_gnd_delay_line
FLAG -1584 512 0
FLAG -1472 512 0
FLAG 2624 784 shield_gnd_delay_line
FLAG 1824 912 shield_gnd_delay_line
FLAG 1824 1136 0
SYMBOL ind2 176 -112 R90
WINDOW 0 5 56 VBottom 2
WINDOW 3 32 56 VTop 2
SYMATTR InstName L1
SYMATTR Value 1m
SYMATTR Type ind
SYMBOL ind2 176 -208 R90
WINDOW 0 5 56 VBottom 2
WINDOW 3 32 56 VTop 2
SYMATTR InstName L2
SYMATTR Value 1m
SYMATTR Type ind
SYMBOL voltage 176 -384 R90
WINDOW 0 -32 56 VBottom 2
WINDOW 3 32 56 VTop 2
WINDOW 123 0 0 Left 2
WINDOW 39 -4 56 VBottom 2
SYMATTR InstName V1
SYMATTR Value SINE(0 30 100k)
SYMATTR SpiceLine Rser=10
SYMBOL cap -704 -112 R90
WINDOW 0 0 32 VBottom 2
WINDOW 3 32 32 VTop 2
SYMATTR InstName C1
SYMATTR Value 2n
SYMBOL voltage -1040 112 R0
WINDOW 123 0 0 Left 2
WINDOW 39 24 124 Left 2
SYMATTR InstName V2
SYMATTR Value PULSE(0 1 0 1n 1n 900n 2u)
SYMBOL ind2 2928 512 R0
SYMATTR InstName L3
SYMATTR Value 1m
SYMATTR Type ind
SYMBOL ind2 3088 624 R180
WINDOW 0 36 80 Left 2
WINDOW 3 36 40 Left 2
SYMATTR InstName L4
SYMATTR Value 1m
SYMATTR Type ind
SYMBOL cap -224 144 R0
SYMATTR InstName C2
SYMATTR Value 2n
SYMBOL voltage -1456 128 R0
WINDOW 123 0 0 Left 2
WINDOW 39 24 124 Left 2
SYMATTR InstName V3
SYMATTR Value PULSE(0 40 0 1n 1n 37n 74n)
SYMBOL bv -896 -96 R90
WINDOW 0 -32 56 VBottom 2
WINDOW 3 32 56 VTop 2
SYMATTR InstName B1
SYMATTR Value V= V(mod)*V(carrier)*V(duty)
SYMBOL voltage -1808 128 R0
WINDOW 123 0 0 Left 2
WINDOW 39 0 0 Left 2
SYMATTR InstName V4
SYMATTR Value PULSE(0 1 0 1n 1n 20u 60u)
SYMBOL cap 3744 -112 R90
WINDOW 0 0 32 VBottom 2
WINDOW 3 32 32 VTop 2
SYMATTR InstName C3
SYMATTR Value 2.2n
SYMBOL cap 3920 -112 R90
WINDOW 0 0 32 VBottom 2
WINDOW 3 32 32 VTop 2
SYMATTR InstName C4
SYMATTR Value 2.2n
SYMBOL ind 3776 -64 R0
SYMATTR InstName L5
SYMATTR Value 5.6µ
SYMBOL res 4192 -32 R0
SYMATTR InstName R2
SYMATTR Value 68
SYMBOL ind 3488 448 R90
WINDOW 0 5 56 VBottom 2
WINDOW 3 32 56 VTop 2
SYMATTR InstName L6
SYMATTR Value 11.1µ
SYMBOL ind 3728 448 R90
WINDOW 0 5 56 VBottom 2
WINDOW 3 32 56 VTop 2
SYMATTR InstName L7
SYMATTR Value 11.1µ
SYMBOL cap 3536 560 R0
SYMATTR InstName C5
SYMATTR Value 4.7n
SYMBOL diode 3840 416 R270
WINDOW 0 32 32 VTop 2
WINDOW 3 0 32 VBottom 2
SYMATTR InstName D1
SYMATTR Value 1N4148
SYMBOL diode 4032 384 R90
WINDOW 0 0 32 VBottom 2
WINDOW 3 32 32 VTop 2
SYMATTR InstName D2
SYMATTR Value 1N4148
SYMBOL diode 3904 512 R90
WINDOW 0 0 32 VBottom 2
WINDOW 3 32 32 VTop 2
SYMATTR InstName D3
SYMATTR Value 1N4148
SYMBOL diode 3968 544 R270
WINDOW 0 32 32 VTop 2
WINDOW 3 0 32 VBottom 2
SYMATTR InstName D4
SYMATTR Value 1N4148
SYMBOL cap 4528 432 R0
SYMATTR InstName C6
SYMATTR Value 1µ
SYMBOL res 4336 272 R90
WINDOW 0 0 56 VBottom 2
WINDOW 3 32 56 VTop 2
SYMATTR InstName R3
SYMATTR Value 10
SYMBOL load 4720 416 R0
WINDOW 123 0 0 Left 2
WINDOW 39 0 0 Left 2
SYMATTR InstName I1
SYMATTR Value 50m
SYMBOL res 1472 976 R0
SYMATTR InstName R1
SYMATTR Value {GND_R}
SYMBOL res 1136 976 R0
SYMATTR InstName R4
SYMATTR Value {GND_R}
SYMBOL res 832 976 R0
SYMATTR InstName R5
SYMATTR Value {GND_R}
SYMBOL res -784 -112 R90
WINDOW 0 0 56 VBottom 2
WINDOW 3 32 56 VTop 2
SYMATTR InstName R6
SYMATTR Value 68
SYMBOL cap -1600 416 R0
SYMATTR InstName C8
SYMATTR Value 10n
SYMBOL cap -1488 416 R0
SYMATTR InstName C9
SYMATTR Value 10n
SYMBOL cap -1120 416 R0
SYMATTR InstName C10
SYMATTR Value 10n
SYMBOL res 1456 0 R90
WINDOW 0 0 56 VBottom 2
WINDOW 3 32 56 VTop 2
SYMATTR InstName R7
SYMATTR Value 2
SYMBOL res 1440 -112 R90
WINDOW 0 0 56 VBottom 2
WINDOW 3 32 56 VTop 2
SYMATTR InstName R8
SYMATTR Value 2
SYMBOL res 1808 976 R0
SYMATTR InstName R9
SYMATTR Value {GND_R}
TEXT -200 -224 Left 2 ;Transformer
TEXT 168 -136 Left 2 !K1 L1 L2 1
TEXT -1368 -64 Left 2 ;EDSAC
TEXT 2976 664 Left 2 !K2 L3 L4 1
TEXT 2976 736 Left 2 ;Transformer
TEXT 168 -592 Left 2 !.tran 0 1100u 1000u
TEXT 1368 -192 Left 2 ;Coax
TEXT 760 -704 Left 2 !.param GND_R=5
RECTANGLE Normal 304 0 -48 -272 2
RECTANGLE Normal 3136 704 2912 480 2
RECTANGLE Normal 2224 64 656 -176 2
RECTANGLE Normal -1872 544 -704 -192 2
