Version 4
SHEET 1 5144 2084
WIRE 576 -384 512 -384
WIRE 736 -384 656 -384
WIRE 496 -368 368 -368
WIRE 512 -368 512 -384
WIRE 512 -368 496 -368
WIRE 496 -192 496 -368
WIRE 576 -192 496 -192
WIRE 736 -192 736 -384
WIRE 736 -192 656 -192
WIRE 144 -96 -32 -96
WIRE 288 -96 144 -96
WIRE 576 -96 288 -96
WIRE 1248 -96 656 -96
WIRE 2240 -96 1328 -96
WIRE 2336 -96 2240 -96
WIRE 2448 -96 2400 -96
WIRE 2512 -96 2448 -96
WIRE 2784 -96 2576 -96
WIRE 2864 -96 2784 -96
WIRE 1328 -64 1008 -64
WIRE 1776 -64 1408 -64
WIRE 2448 -48 2448 -96
WIRE 288 -16 288 -96
WIRE 2864 -16 2864 -96
WIRE 2448 96 2448 32
WIRE 2592 96 2448 96
WIRE 2864 96 2864 64
WIRE 2864 96 2592 96
WIRE 288 144 288 64
WIRE 288 240 288 208
WIRE 288 240 -144 240
WIRE 592 240 288 240
WIRE 1008 240 1008 -64
WIRE 1008 240 592 240
WIRE 3008 288 2976 288
WIRE 3200 288 3088 288
WIRE 3344 288 3200 288
WIRE 3408 288 3344 288
WIRE 2752 336 2368 336
WIRE 2672 400 2624 400
WIRE 2752 400 2752 336
WIRE 2752 400 2736 400
WIRE 2800 400 2752 400
WIRE 2928 400 2864 400
WIRE 3200 432 3200 288
WIRE 3408 432 3408 288
WIRE 2624 464 2624 400
WIRE 2624 464 2512 464
WIRE 2928 464 2928 400
WIRE 2976 464 2976 288
WIRE 2976 464 2928 464
WIRE 2240 528 2240 -96
WIRE 2368 528 2368 336
WIRE 2624 528 2624 464
WIRE 2672 528 2624 528
WIRE 2752 528 2736 528
WIRE 2800 528 2752 528
WIRE 2928 528 2928 464
WIRE 2928 528 2864 528
WIRE 624 656 624 576
WIRE 928 656 928 576
WIRE 1264 656 1264 576
WIRE 1600 656 1600 576
WIRE 2512 656 2512 464
WIRE 3104 656 2512 656
WIRE 3200 656 3200 496
WIRE 3200 656 3104 656
WIRE 3408 656 3408 512
WIRE 3408 656 3200 656
WIRE 2368 720 2368 608
WIRE 2752 720 2752 528
WIRE 2752 720 2368 720
WIRE 1776 784 1776 -64
WIRE 1920 784 1776 784
WIRE 2240 784 2240 608
WIRE 2240 784 1920 784
WIRE 3104 784 3104 656
WIRE 3104 784 2240 784
WIRE 624 800 624 736
WIRE 928 800 928 736
WIRE 1264 800 1264 736
WIRE 1600 800 1600 736
FLAG 592 240 shield_gnd_edsac
FLAG 1264 576 shield_gnd_edsac
FLAG 1264 800 0
FLAG 928 576 edsac_0v_isolated
FLAG 928 800 0
FLAG 368 -368 delay_line_psu_gnd
FLAG 624 576 delay_line_psu_gnd
FLAG 624 800 0
FLAG 2592 96 shield_gnd_delay_line
FLAG 1920 784 shield_gnd_delay_line
FLAG 1600 576 shield_gnd_delay_line
FLAG 1600 800 0
FLAG 144 -96 from_edsac
FLAG 2784 -96 filtered_signal
FLAG 3344 288 phantom_power
SYMBOL ind2 672 -112 R90
WINDOW 0 5 56 VBottom 2
WINDOW 3 32 56 VTop 2
SYMATTR InstName L1
SYMATTR Value 100µ
SYMATTR Type ind
SYMBOL ind2 672 -208 R90
WINDOW 0 5 56 VBottom 2
WINDOW 3 32 56 VTop 2
SYMATTR InstName L2
SYMATTR Value 100µ
SYMATTR Type ind
SYMBOL voltage 672 -384 R90
WINDOW 0 -32 56 VBottom 2
WINDOW 3 32 56 VTop 2
WINDOW 123 0 0 Left 2
WINDOW 39 -4 56 VBottom 2
SYMATTR InstName V1
SYMATTR Value SINE(0 60 100k)
SYMATTR SpiceLine Rser=0.1
SYMBOL ind2 2224 512 R0
SYMATTR InstName L3
SYMATTR Value 100µ
SYMATTR Type ind
SYMBOL ind2 2384 624 R180
WINDOW 0 36 80 Left 2
WINDOW 3 36 40 Left 2
SYMATTR InstName L4
SYMATTR Value 100µ
SYMATTR Type ind
SYMBOL cap 272 144 R0
SYMATTR InstName C2
SYMATTR Value 1µ
SYMBOL cap 2400 -112 R90
WINDOW 0 0 32 VBottom 2
WINDOW 3 32 32 VTop 2
SYMATTR InstName C3
SYMATTR Value 2.2n
SYMBOL cap 2576 -112 R90
WINDOW 0 0 32 VBottom 2
WINDOW 3 32 32 VTop 2
SYMATTR InstName C4
SYMATTR Value 2.2n
SYMBOL ind 2432 -64 R0
SYMATTR InstName L5
SYMATTR Value 5.6µ
SYMBOL res 2848 -32 R0
SYMATTR InstName R2
SYMATTR Value 68
SYMBOL diode 2672 416 R270
WINDOW 0 32 32 VTop 2
WINDOW 3 0 32 VBottom 2
SYMATTR InstName D1
SYMATTR Value 1N4148
SYMBOL diode 2800 416 R270
WINDOW 0 32 32 VTop 2
WINDOW 3 0 32 VBottom 2
SYMATTR InstName D2
SYMATTR Value 1N4148
SYMBOL diode 2672 544 R270
WINDOW 0 32 32 VTop 2
WINDOW 3 0 32 VBottom 2
SYMATTR InstName D3
SYMATTR Value 1N4148
SYMBOL diode 2800 544 R270
WINDOW 0 32 32 VTop 2
WINDOW 3 0 32 VBottom 2
SYMATTR InstName D4
SYMATTR Value 1N4148
SYMBOL res 1248 640 R0
SYMATTR InstName R1
SYMATTR Value {GND_R}
SYMBOL res 912 640 R0
SYMATTR InstName R4
SYMATTR Value {GND_R}
SYMBOL res 608 640 R0
SYMATTR InstName R5
SYMATTR Value {GND_R}
SYMBOL res 1584 640 R0
SYMATTR InstName R9
SYMATTR Value {GND_R}
SYMBOL store_regen_output -80 -96 R0
WINDOW 0 -24 -20 Bottom 2
SYMATTR InstName X1
SYMBOL ind 272 -32 R0
SYMATTR InstName L6
SYMATTR Value 100µ
SYMBOL cap 3184 432 R0
SYMATTR InstName C1
SYMATTR Value 4.7µ
SYMBOL res 3104 272 R90
WINDOW 0 0 56 VBottom 2
WINDOW 3 32 56 VTop 2
SYMATTR InstName R3
SYMATTR Value 100
SYMBOL res 3392 416 R0
SYMATTR InstName R6
SYMATTR Value 150
SYMBOL res 1344 -112 R90
WINDOW 0 0 56 VBottom 2
WINDOW 3 32 56 VTop 2
SYMATTR InstName R7
SYMATTR Value 0.5
SYMBOL res 1424 -80 R90
WINDOW 0 0 56 VBottom 2
WINDOW 3 32 56 VTop 2
SYMATTR InstName R8
SYMATTR Value 0.5
TEXT 296 -224 Left 2 ;Transformer
TEXT 664 -136 Left 2 !K1 L1 L2 1
TEXT 2272 664 Left 2 !K2 L3 L4 1
TEXT 2272 736 Left 2 ;Transformer
TEXT 920 -344 Left 2 !.tran 0 1050u 1000u
TEXT 1368 -192 Left 2 ;Coax
TEXT 920 -384 Left 2 !.param GND_R=0.01
TEXT 1224 -248 Left 2 !.model PL1 LTRA(len=1 R=92m L=376n C=67p)
RECTANGLE Normal 800 0 448 -272 2
RECTANGLE Normal 2432 704 2208 480 2
RECTANGLE Normal 1520 64 1152 -176 2
