Version 4
SHEET 1 5144 2084
WIRE 480 -240 -336 -240
WIRE 640 -240 560 -240
WIRE 144 -96 -32 -96
WIRE 640 -96 640 -240
WIRE 640 -96 144 -96
WIRE 1248 -96 640 -96
WIRE 1680 -96 1328 -96
WIRE 1856 -96 1680 -96
WIRE 2000 -96 1920 -96
WIRE 2080 -96 2000 -96
WIRE 1328 -64 1008 -64
WIRE 1632 -64 1408 -64
WIRE 1776 -64 1632 -64
WIRE 2080 -64 2080 -96
WIRE -336 -32 -336 -240
WIRE 1776 64 1776 -64
WIRE 1920 64 1776 64
WIRE 2080 64 2080 16
WIRE 2080 64 1920 64
WIRE 2320 64 2080 64
WIRE -336 96 -336 48
WIRE 1008 240 1008 -64
WIRE 1008 240 592 240
WIRE 1680 256 1680 -96
WIRE 1936 256 1680 256
WIRE 2080 256 2000 256
WIRE 2240 256 2160 256
WIRE 2432 256 2320 256
WIRE 2560 256 2432 256
WIRE 2432 272 2432 256
WIRE 2560 272 2560 256
WIRE 1632 352 1632 -64
WIRE 2432 352 2432 336
WIRE 2432 352 1632 352
WIRE 2560 352 2432 352
WIRE 1152 1088 1152 1008
WIRE 1488 1088 1488 1008
WIRE 1152 1232 1152 1168
WIRE 1488 1232 1488 1168
FLAG 592 240 shield_gnd_edsac
FLAG 1152 1008 shield_gnd_edsac
FLAG 1152 1232 0
FLAG 1920 64 shield_gnd_delay_line
FLAG 1488 1008 shield_gnd_delay_line
FLAG 1488 1232 0
FLAG 144 -96 from_edsac
FLAG 2000 -96 filtered_signal
FLAG -336 96 0
SYMBOL cap 1920 -112 R90
WINDOW 0 0 32 VBottom 2
WINDOW 3 32 32 VTop 2
SYMATTR InstName C3
SYMATTR Value 2.2n
SYMBOL res 2064 -80 R0
SYMATTR InstName R2
SYMATTR Value 68
SYMBOL res 1136 1072 R0
SYMATTR InstName R1
SYMATTR Value {GND_R}
SYMBOL res 1472 1072 R0
SYMATTR InstName R9
SYMATTR Value {GND_R}
SYMBOL res 1344 -112 R90
WINDOW 0 0 56 VBottom 2
WINDOW 3 32 56 VTop 2
SYMATTR InstName R7
SYMATTR Value 0.5
SYMBOL res 1424 -80 R90
WINDOW 0 0 56 VBottom 2
WINDOW 3 32 56 VTop 2
SYMATTR InstName R8
SYMATTR Value 0.5
SYMBOL voltage -336 -48 R0
WINDOW 123 0 0 Left 2
WINDOW 39 0 0 Left 2
SYMATTR InstName V1
SYMATTR Value SINE(0 6.3 50)
SYMBOL res 576 -256 R90
WINDOW 0 0 56 VBottom 2
WINDOW 3 32 56 VTop 2
SYMATTR InstName R3
SYMATTR Value 10
SYMBOL dummy_edsac -80 -96 R0
SYMATTR InstName X1
SYMBOL diode 1936 272 R270
WINDOW 0 32 32 VTop 2
WINDOW 3 0 32 VBottom 2
SYMATTR InstName D1
SYMBOL cap 2416 272 R0
SYMATTR InstName C1
SYMATTR Value 10m
SYMBOL ind 2064 272 R270
WINDOW 0 32 56 VTop 2
WINDOW 3 5 56 VBottom 2
SYMATTR InstName L1
SYMATTR Value 1m
SYMBOL res 2544 256 R0
SYMATTR InstName R4
SYMATTR Value 100
SYMBOL res 2336 240 R90
WINDOW 0 0 56 VBottom 2
WINDOW 3 32 56 VTop 2
SYMATTR InstName R5
SYMATTR Value 10
TEXT 920 -344 Left 2 !.tran 0 20000u 0
TEXT 1368 -192 Left 2 ;Coax
TEXT 920 -384 Left 2 !.param GND_R=0.01
TEXT 1224 -248 Left 2 !.model PL1 LTRA(len=1 R=92m L=376n C=67p)
RECTANGLE Normal 1520 64 1152 -176 2
